<?xml version="1.0" encoding="UTF-8"?>

<!-- generated on 2026-01-11T12:02:31.688697+05:30 by Eclipse SUMO netedit 1.25.0
<neteditConfiguration xmlns:xsi="http://www.w3.org/2001/XMLSchema-instance" xsi:noNamespaceSchemaLocation="http://sumo.dlr.de/xsd/neteditConfiguration.xsd">

    <input>
        <sumo-net-file value="D:\Mega_Project\test\map.net.xml"/>
    </input>

    <output>
        <output-file value="D:\Mega_Project\test\map.net.xml"/>
    </output>

    <processing>
        <offset.disable-normalization value="true"/>
    </processing>

    <junctions>
        <no-turnarounds value="true"/>
    </junctions>

    <netedit>
        <new-network value="false"/>
    </netedit>

</neteditConfiguration>
-->

<net version="1.20" junctionCornerDetail="5" limitTurnSpeed="5.50" xmlns:xsi="http://www.w3.org/2001/XMLSchema-instance" xsi:noNamespaceSchemaLocation="http://sumo.dlr.de/xsd/net_file.xsd">

    <location netOffset="0.00,0.00" convBoundary="-200.00,-100.00,0.00,100.00" origBoundary="10000000000.00,10000000000.00,-10000000000.00,-10000000000.00" projParameter="!"/>

    <edge id=":J4_0" function="internal">
        <lane id=":J4_0_0" index="0" speed="6.51" length="9.03" shape="-104.80,10.40 -105.15,7.95 -106.20,6.20 -107.95,5.15 -110.40,4.80"/>
    </edge>
    <edge id=":J4_1" function="internal">
        <lane id=":J4_1_0" index="0" speed="13.90" length="20.80" shape="-104.80,10.40 -104.80,-10.40"/>
        <lane id=":J4_1_1" index="1" speed="13.90" length="20.80" shape="-101.60,10.40 -101.60,-10.40"/>
    </edge>
    <edge id=":J4_3" function="internal">
        <lane id=":J4_3_0" index="0" speed="9.26" length="5.01" shape="-101.60,10.40 -100.89,5.44"/>
    </edge>
    <edge id=":J4_16" function="internal">
        <lane id=":J4_16_0" index="0" speed="9.26" length="14.34" shape="-100.89,5.44 -100.85,5.15 -98.60,1.40 -94.85,-0.85 -89.60,-1.60"/>
    </edge>
    <edge id=":J4_4" function="internal">
        <lane id=":J4_4_0" index="0" speed="6.51" length="9.03" shape="-89.60,4.80 -92.05,5.15 -93.80,6.20 -94.85,7.95 -95.20,10.40"/>
    </edge>
    <edge id=":J4_5" function="internal">
        <lane id=":J4_5_0" index="0" speed="13.90" length="20.80" shape="-89.60,4.80 -110.40,4.80"/>
        <lane id=":J4_5_1" index="1" speed="13.90" length="20.80" shape="-89.60,1.60 -110.40,1.60"/>
    </edge>
    <edge id=":J4_7" function="internal">
        <lane id=":J4_7_0" index="0" speed="9.26" length="5.01" shape="-89.60,1.60 -94.56,0.89"/>
    </edge>
    <edge id=":J4_17" function="internal">
        <lane id=":J4_17_0" index="0" speed="9.26" length="14.34" shape="-94.56,0.89 -94.85,0.85 -98.60,-1.40 -100.85,-5.15 -101.60,-10.40"/>
    </edge>
    <edge id=":J4_8" function="internal">
        <lane id=":J4_8_0" index="0" speed="6.51" length="9.03" shape="-95.20,-10.40 -94.85,-7.95 -93.80,-6.20 -92.05,-5.15 -89.60,-4.80"/>
    </edge>
    <edge id=":J4_9" function="internal">
        <lane id=":J4_9_0" index="0" speed="13.90" length="20.80" shape="-95.20,-10.40 -95.20,10.40"/>
        <lane id=":J4_9_1" index="1" speed="13.90" length="20.80" shape="-98.40,-10.40 -98.40,10.40"/>
    </edge>
    <edge id=":J4_11" function="internal">
        <lane id=":J4_11_0" index="0" speed="9.26" length="5.01" shape="-98.40,-10.40 -99.11,-5.44"/>
    </edge>
    <edge id=":J4_18" function="internal">
        <lane id=":J4_18_0" index="0" speed="9.26" length="14.34" shape="-99.11,-5.44 -99.15,-5.15 -101.40,-1.40 -105.15,0.85 -110.40,1.60"/>
    </edge>
    <edge id=":J4_12" function="internal">
        <lane id=":J4_12_0" index="0" speed="6.51" length="9.03" shape="-110.40,-4.80 -107.95,-5.15 -106.20,-6.20 -105.15,-7.95 -104.80,-10.40"/>
    </edge>
    <edge id=":J4_13" function="internal">
        <lane id=":J4_13_0" index="0" speed="13.90" length="20.80" shape="-110.40,-4.80 -89.60,-4.80"/>
        <lane id=":J4_13_1" index="1" speed="13.90" length="20.80" shape="-110.40,-1.60 -89.60,-1.60"/>
    </edge>
    <edge id=":J4_15" function="internal">
        <lane id=":J4_15_0" index="0" speed="9.26" length="5.01" shape="-110.40,-1.60 -105.44,-0.89"/>
    </edge>
    <edge id=":J4_19" function="internal">
        <lane id=":J4_19_0" index="0" speed="9.26" length="14.34" shape="-105.44,-0.89 -105.15,-0.85 -101.40,1.40 -99.15,5.15 -98.40,10.40"/>
    </edge>

    <edge id="east_in" from="J5" to="J4" priority="-1">
        <lane id="east_in_0" index="0" speed="13.90" length="89.60" shape="0.00,4.80 -89.60,4.80"/>
        <lane id="east_in_1" index="1" speed="13.90" length="89.60" shape="0.00,1.60 -89.60,1.60"/>
    </edge>
    <edge id="east_out" from="J4" to="J5" priority="-1">
        <lane id="east_out_0" index="0" speed="13.90" length="89.60" shape="-89.60,-4.80 0.00,-4.80"/>
        <lane id="east_out_1" index="1" speed="13.90" length="89.60" shape="-89.60,-1.60 0.00,-1.60"/>
    </edge>
    <edge id="north_in" from="J8" to="J4" priority="-1">
        <lane id="north_in_0" index="0" speed="13.90" length="89.60" shape="-104.80,100.00 -104.80,10.40"/>
        <lane id="north_in_1" index="1" speed="13.90" length="89.60" shape="-101.60,100.00 -101.60,10.40"/>
    </edge>
    <edge id="north_out" from="J4" to="J8" priority="-1">
        <lane id="north_out_0" index="0" speed="13.90" length="89.60" shape="-95.20,10.40 -95.20,100.00"/>
        <lane id="north_out_1" index="1" speed="13.90" length="89.60" shape="-98.40,10.40 -98.40,100.00"/>
    </edge>
    <edge id="south_in" from="J6" to="J4" priority="-1">
        <lane id="south_in_0" index="0" speed="13.90" length="89.60" shape="-95.20,-100.00 -95.20,-10.40"/>
        <lane id="south_in_1" index="1" speed="13.90" length="89.60" shape="-98.40,-100.00 -98.40,-10.40"/>
    </edge>
    <edge id="south_out" from="J4" to="J6" priority="-1">
        <lane id="south_out_0" index="0" speed="13.90" length="89.60" shape="-104.80,-10.40 -104.80,-100.00"/>
        <lane id="south_out_1" index="1" speed="13.90" length="89.60" shape="-101.60,-10.40 -101.60,-100.00"/>
    </edge>
    <edge id="west_in" from="J7" to="J4" priority="-1">
        <lane id="west_in_0" index="0" speed="13.90" length="89.60" shape="-200.00,-4.80 -110.40,-4.80"/>
        <lane id="west_in_1" index="1" speed="13.90" length="89.60" shape="-200.00,-1.60 -110.40,-1.60"/>
    </edge>
    <edge id="west_out" from="J4" to="J7" priority="-1">
        <lane id="west_out_0" index="0" speed="13.90" length="89.60" shape="-110.40,4.80 -200.00,4.80"/>
        <lane id="west_out_1" index="1" speed="13.90" length="89.60" shape="-110.40,1.60 -200.00,1.60"/>
    </edge>

    <tlLogic id="J4" type="static" programID="0" offset="0">
        <phase duration="42" state="GGGgrrrrGGGgrrrr"/>
        <phase duration="3"  state="yyyyrrrryyyyrrrr"/>
        <phase duration="42" state="rrrrGGGgrrrrGGGg"/>
        <phase duration="3"  state="rrrryyyyrrrryyyy"/>
    </tlLogic>

    <junction id="J4" type="traffic_light" x="-100.00" y="0.00" incLanes="north_in_0 north_in_1 east_in_0 east_in_1 south_in_0 south_in_1 west_in_0 west_in_1" intLanes=":J4_0_0 :J4_1_0 :J4_1_1 :J4_16_0 :J4_4_0 :J4_5_0 :J4_5_1 :J4_17_0 :J4_8_0 :J4_9_0 :J4_9_1 :J4_18_0 :J4_12_0 :J4_13_0 :J4_13_1 :J4_19_0" shape="-106.40,10.40 -93.60,10.40 -93.16,8.18 -92.60,7.40 -91.82,6.84 -90.82,6.51 -89.60,6.40 -89.60,-6.40 -91.82,-6.84 -92.60,-7.40 -93.16,-8.18 -93.49,-9.18 -93.60,-10.40 -106.40,-10.40 -106.84,-8.18 -107.40,-7.40 -108.18,-6.84 -109.18,-6.51 -110.40,-6.40 -110.40,6.40 -108.18,6.84 -107.40,7.40 -106.84,8.18 -106.51,9.18">
        <request index="0"  response="0000000000000000" foes="0000000001100000" cont="0"/>
        <request index="1"  response="1000000000000000" foes="1111100011100000" cont="0"/>
        <request index="2"  response="1000000010000000" foes="1111100011100000" cont="0"/>
        <request index="3"  response="1000011010000000" foes="1110011011100000" cont="1"/>
        <request index="4"  response="0000011000000000" foes="0000011000000000" cont="0"/>
        <request index="5"  response="0000111000001111" foes="1000111000001111" cont="0"/>
        <request index="6"  response="0000111000001111" foes="1000111000001111" cont="0"/>
        <request index="7"  response="0110111000001110" foes="0110111000001110" cont="1"/>
        <request index="8"  response="0000000000000000" foes="0110000000000000" cont="0"/>
        <request index="9"  response="0000000010000000" foes="1110000011111000" cont="0"/>
        <request index="10" response="1000000010000000" foes="1110000011111000" cont="0"/>
        <request index="11" response="1000000010000110" foes="1110000011100110" cont="1"/>
        <request index="12" response="0000000000000110" foes="0000000000000110" cont="0"/>
        <request index="13" response="0000111100001110" foes="0000111110001110" cont="0"/>
        <request index="14" response="0000111100001110" foes="0000111110001110" cont="0"/>
        <request index="15" response="0000111001101110" foes="0000111001101110" cont="1"/>
    </junction>
    <junction id="J5" type="dead_end" x="0.00" y="0.00" incLanes="east_out_0 east_out_1" intLanes="" shape="0.00,0.00 0.00,-6.40 0.00,0.00"/>
    <junction id="J6" type="dead_end" x="-100.00" y="-100.00" incLanes="south_out_0 south_out_1" intLanes="" shape="-100.00,-100.00 -106.40,-100.00 -100.00,-100.00"/>
    <junction id="J7" type="dead_end" x="-200.00" y="0.00" incLanes="west_out_0 west_out_1" intLanes="" shape="-200.00,0.00 -200.00,6.40 -200.00,0.00"/>
    <junction id="J8" type="dead_end" x="-100.00" y="100.00" incLanes="north_out_0 north_out_1" intLanes="" shape="-100.00,100.00 -93.60,100.00 -100.00,100.00"/>

    <junction id=":J4_16_0" type="internal" x="-100.89" y="5.44" incLanes=":J4_3_0 south_in_0 south_in_1" intLanes=":J4_5_0 :J4_5_1 :J4_7_0 :J4_8_0 :J4_9_0 :J4_9_1 :J4_13_0 :J4_13_1 :J4_15_0"/>
    <junction id=":J4_17_0" type="internal" x="-94.56" y="0.89" incLanes=":J4_7_0 west_in_0 west_in_1" intLanes=":J4_1_0 :J4_1_1 :J4_3_0 :J4_9_0 :J4_9_1 :J4_11_0 :J4_12_0 :J4_13_0 :J4_13_1"/>
    <junction id=":J4_18_0" type="internal" x="-99.11" y="-5.44" incLanes=":J4_11_0 north_in_0 north_in_1" intLanes=":J4_0_0 :J4_1_0 :J4_1_1 :J4_5_0 :J4_5_1 :J4_7_0 :J4_13_0 :J4_13_1 :J4_15_0"/>
    <junction id=":J4_19_0" type="internal" x="-105.44" y="-0.89" incLanes=":J4_15_0 east_in_0 east_in_1" intLanes=":J4_1_0 :J4_1_1 :J4_3_0 :J4_4_0 :J4_5_0 :J4_5_1 :J4_9_0 :J4_9_1 :J4_11_0"/>

    <connection from="east_in" to="north_out" fromLane="0" toLane="0" via=":J4_4_0" tl="J4" linkIndex="4" dir="r" state="o"/>
    <connection from="east_in" to="west_out" fromLane="0" toLane="0" via=":J4_5_0" tl="J4" linkIndex="5" dir="s" state="o"/>
    <connection from="east_in" to="west_out" fromLane="1" toLane="1" via=":J4_5_1" tl="J4" linkIndex="6" dir="s" state="o"/>
    <connection from="east_in" to="south_out" fromLane="1" toLane="1" via=":J4_7_0" tl="J4" linkIndex="7" dir="l" state="o"/>
    <connection from="north_in" to="west_out" fromLane="0" toLane="0" via=":J4_0_0" tl="J4" linkIndex="0" dir="r" state="O"/>
    <connection from="north_in" to="south_out" fromLane="0" toLane="0" via=":J4_1_0" tl="J4" linkIndex="1" dir="s" state="O"/>
    <connection from="north_in" to="south_out" fromLane="1" toLane="1" via=":J4_1_1" tl="J4" linkIndex="2" dir="s" state="O"/>
    <connection from="north_in" to="east_out" fromLane="1" toLane="1" via=":J4_3_0" tl="J4" linkIndex="3" dir="l" state="o"/>
    <connection from="south_in" to="east_out" fromLane="0" toLane="0" via=":J4_8_0" tl="J4" linkIndex="8" dir="r" state="O"/>
    <connection from="south_in" to="north_out" fromLane="0" toLane="0" via=":J4_9_0" tl="J4" linkIndex="9" dir="s" state="O"/>
    <connection from="south_in" to="north_out" fromLane="1" toLane="1" via=":J4_9_1" tl="J4" linkIndex="10" dir="s" state="O"/>
    <connection from="south_in" to="west_out" fromLane="1" toLane="1" via=":J4_11_0" tl="J4" linkIndex="11" dir="l" state="o"/>
    <connection from="west_in" to="south_out" fromLane="0" toLane="0" via=":J4_12_0" tl="J4" linkIndex="12" dir="r" state="o"/>
    <connection from="west_in" to="east_out" fromLane="0" toLane="0" via=":J4_13_0" tl="J4" linkIndex="13" dir="s" state="o"/>
    <connection from="west_in" to="east_out" fromLane="1" toLane="1" via=":J4_13_1" tl="J4" linkIndex="14" dir="s" state="o"/>
    <connection from="west_in" to="north_out" fromLane="1" toLane="1" via=":J4_15_0" tl="J4" linkIndex="15" dir="l" state="o"/>

    <connection from=":J4_0" to="west_out" fromLane="0" toLane="0" dir="r" state="M"/>
    <connection from=":J4_1" to="south_out" fromLane="0" toLane="0" dir="s" state="M"/>
    <connection from=":J4_1" to="south_out" fromLane="1" toLane="1" dir="s" state="M"/>
    <connection from=":J4_3" to="east_out" fromLane="0" toLane="1" via=":J4_16_0" dir="l" state="m"/>
    <connection from=":J4_16" to="east_out" fromLane="0" toLane="1" dir="l" state="M"/>
    <connection from=":J4_4" to="north_out" fromLane="0" toLane="0" dir="r" state="M"/>
    <connection from=":J4_5" to="west_out" fromLane="0" toLane="0" dir="s" state="M"/>
    <connection from=":J4_5" to="west_out" fromLane="1" toLane="1" dir="s" state="M"/>
    <connection from=":J4_7" to="south_out" fromLane="0" toLane="1" via=":J4_17_0" dir="l" state="m"/>
    <connection from=":J4_17" to="south_out" fromLane="0" toLane="1" dir="l" state="M"/>
    <connection from=":J4_8" to="east_out" fromLane="0" toLane="0" dir="r" state="M"/>
    <connection from=":J4_9" to="north_out" fromLane="0" toLane="0" dir="s" state="M"/>
    <connection from=":J4_9" to="north_out" fromLane="1" toLane="1" dir="s" state="M"/>
    <connection from=":J4_11" to="west_out" fromLane="0" toLane="1" via=":J4_18_0" dir="l" state="m"/>
    <connection from=":J4_18" to="west_out" fromLane="0" toLane="1" dir="l" state="M"/>
    <connection from=":J4_12" to="south_out" fromLane="0" toLane="0" dir="r" state="M"/>
    <connection from=":J4_13" to="east_out" fromLane="0" toLane="0" dir="s" state="M"/>
    <connection from=":J4_13" to="east_out" fromLane="1" toLane="1" dir="s" state="M"/>
    <connection from=":J4_15" to="north_out" fromLane="0" toLane="1" via=":J4_19_0" dir="l" state="m"/>
    <connection from=":J4_19" to="north_out" fromLane="0" toLane="1" dir="l" state="M"/>

</net>
