<?xml version="1.0" encoding="UTF-8"?>

<!-- generated on 2026-04-07T16:03:54.883181+05:30 by Eclipse SUMO netconvert 1.25.0
<netconvertConfiguration xmlns:xsi="http://www.w3.org/2001/XMLSchema-instance" xsi:noNamespaceSchemaLocation="http://sumo.dlr.de/xsd/netconvertConfiguration.xsd">

    <input>
        <node-files value="network_multi/arterial.nod.xml"/>
        <edge-files value="network_multi/arterial.edg.xml"/>
    </input>

    <output>
        <output-file value="network_multi/arterial.net.xml"/>
    </output>

    <tls_building>
        <tls.default-type value="actuated"/>
    </tls_building>

</netconvertConfiguration>
-->

<net version="1.20" junctionCornerDetail="5" limitTurnSpeed="5.50" xmlns:xsi="http://www.w3.org/2001/XMLSchema-instance" xsi:noNamespaceSchemaLocation="http://sumo.dlr.de/xsd/net_file.xsd">

    <location netOffset="200.00,200.00" convBoundary="0.00,0.00,1300.00,400.00" origBoundary="-200.00,-200.00,1100.00,200.00" projParameter="!"/>

    <edge id=":J1_0" function="internal">
        <lane id=":J1_0_0" index="0" speed="6.51" length="9.03" shape="198.40,210.40 198.05,207.95 197.00,206.20 195.25,205.15 192.80,204.80"/>
    </edge>
    <edge id=":J1_1" function="internal">
        <lane id=":J1_1_0" index="0" speed="8.33" length="20.80" shape="198.40,210.40 198.40,189.60"/>
    </edge>
    <edge id=":J1_2" function="internal">
        <lane id=":J1_2_0" index="0" speed="8.67" length="5.56" shape="198.40,210.40 198.95,205.15 199.06,204.89"/>
    </edge>
    <edge id=":J1_3" function="internal">
        <lane id=":J1_3_0" index="0" speed="3.65" length="1.44" shape="198.40,210.40 199.20,209.20"/>
    </edge>
    <edge id=":J1_18" function="internal">
        <lane id=":J1_18_0" index="0" speed="8.67" length="11.29" shape="199.06,204.89 200.60,201.40 203.35,199.15 207.20,198.40"/>
    </edge>
    <edge id=":J1_19" function="internal">
        <lane id=":J1_19_0" index="0" speed="3.65" length="3.23" shape="199.20,209.20 200.00,208.80 200.80,209.20 201.60,210.40"/>
    </edge>
    <edge id=":J1_4" function="internal">
        <lane id=":J1_4_0" index="0" speed="6.51" length="9.03" shape="207.20,204.80 204.75,205.15 203.00,206.20 201.95,207.95 201.60,210.40"/>
    </edge>
    <edge id=":J1_5" function="internal">
        <lane id=":J1_5_0" index="0" speed="13.89" length="14.40" shape="207.20,204.80 192.80,204.80"/>
        <lane id=":J1_5_1" index="1" speed="13.89" length="14.40" shape="207.20,201.60 192.80,201.60"/>
    </edge>
    <edge id=":J1_7" function="internal">
        <lane id=":J1_7_0" index="0" speed="8.67" length="3.71" shape="207.20,201.60 203.56,200.89"/>
    </edge>
    <edge id=":J1_8" function="internal">
        <lane id=":J1_8_0" index="0" speed="3.65" length="1.44" shape="207.20,201.60 206.00,200.80"/>
    </edge>
    <edge id=":J1_20" function="internal">
        <lane id=":J1_20_0" index="0" speed="8.67" length="13.14" shape="203.56,200.89 203.35,200.85 200.60,198.60 198.95,194.85 198.40,189.60"/>
    </edge>
    <edge id=":J1_21" function="internal">
        <lane id=":J1_21_0" index="0" speed="3.65" length="3.23" shape="206.00,200.80 205.60,200.00 206.00,199.20 207.20,198.40"/>
    </edge>
    <edge id=":J1_9" function="internal">
        <lane id=":J1_9_0" index="0" speed="6.51" length="9.03" shape="201.60,189.60 201.95,192.05 203.00,193.80 204.75,194.85 207.20,195.20"/>
    </edge>
    <edge id=":J1_10" function="internal">
        <lane id=":J1_10_0" index="0" speed="8.33" length="20.80" shape="201.60,189.60 201.60,210.40"/>
    </edge>
    <edge id=":J1_11" function="internal">
        <lane id=":J1_11_0" index="0" speed="8.67" length="5.56" shape="201.60,189.60 201.05,194.85 200.94,195.11"/>
    </edge>
    <edge id=":J1_12" function="internal">
        <lane id=":J1_12_0" index="0" speed="3.65" length="1.44" shape="201.60,189.60 200.80,190.80"/>
    </edge>
    <edge id=":J1_22" function="internal">
        <lane id=":J1_22_0" index="0" speed="8.67" length="11.29" shape="200.94,195.11 199.40,198.60 196.65,200.85 192.80,201.60"/>
    </edge>
    <edge id=":J1_23" function="internal">
        <lane id=":J1_23_0" index="0" speed="3.65" length="3.23" shape="200.80,190.80 200.00,191.20 199.20,190.80 198.40,189.60"/>
    </edge>
    <edge id=":J1_13" function="internal">
        <lane id=":J1_13_0" index="0" speed="6.51" length="9.03" shape="192.80,195.20 195.25,194.85 197.00,193.80 198.05,192.05 198.40,189.60"/>
    </edge>
    <edge id=":J1_14" function="internal">
        <lane id=":J1_14_0" index="0" speed="13.89" length="14.40" shape="192.80,195.20 207.20,195.20"/>
        <lane id=":J1_14_1" index="1" speed="13.89" length="14.40" shape="192.80,198.40 207.20,198.40"/>
    </edge>
    <edge id=":J1_16" function="internal">
        <lane id=":J1_16_0" index="0" speed="8.67" length="3.71" shape="192.80,198.40 196.44,199.11"/>
    </edge>
    <edge id=":J1_17" function="internal">
        <lane id=":J1_17_0" index="0" speed="3.65" length="1.44" shape="192.80,198.40 194.00,199.20"/>
    </edge>
    <edge id=":J1_24" function="internal">
        <lane id=":J1_24_0" index="0" speed="8.67" length="13.14" shape="196.44,199.11 196.65,199.15 199.40,201.40 201.05,205.15 201.60,210.40"/>
    </edge>
    <edge id=":J1_25" function="internal">
        <lane id=":J1_25_0" index="0" speed="3.65" length="3.23" shape="194.00,199.20 194.40,200.00 194.00,200.80 192.80,201.60"/>
    </edge>
    <edge id=":J1N_0" function="internal">
        <lane id=":J1N_0_0" index="0" speed="3.65" length="4.67" shape="201.60,400.00 200.80,401.20 200.00,401.60 199.20,401.20 198.40,400.00"/>
    </edge>
    <edge id=":J1S_0" function="internal">
        <lane id=":J1S_0_0" index="0" speed="3.65" length="4.67" shape="198.40,0.00 199.20,-1.20 200.00,-1.60 200.80,-1.20 201.60,0.00"/>
    </edge>
    <edge id=":J2_0" function="internal">
        <lane id=":J2_0_0" index="0" speed="6.51" length="9.03" shape="498.40,210.40 498.05,207.95 497.00,206.20 495.25,205.15 492.80,204.80"/>
    </edge>
    <edge id=":J2_1" function="internal">
        <lane id=":J2_1_0" index="0" speed="8.33" length="20.80" shape="498.40,210.40 498.40,189.60"/>
    </edge>
    <edge id=":J2_2" function="internal">
        <lane id=":J2_2_0" index="0" speed="8.67" length="5.56" shape="498.40,210.40 498.95,205.15 499.06,204.89"/>
    </edge>
    <edge id=":J2_3" function="internal">
        <lane id=":J2_3_0" index="0" speed="3.65" length="1.44" shape="498.40,210.40 499.20,209.20"/>
    </edge>
    <edge id=":J2_18" function="internal">
        <lane id=":J2_18_0" index="0" speed="8.67" length="11.29" shape="499.06,204.89 500.60,201.40 503.35,199.15 507.20,198.40"/>
    </edge>
    <edge id=":J2_19" function="internal">
        <lane id=":J2_19_0" index="0" speed="3.65" length="3.23" shape="499.20,209.20 500.00,208.80 500.80,209.20 501.60,210.40"/>
    </edge>
    <edge id=":J2_4" function="internal">
        <lane id=":J2_4_0" index="0" speed="6.51" length="9.03" shape="507.20,204.80 504.75,205.15 503.00,206.20 501.95,207.95 501.60,210.40"/>
    </edge>
    <edge id=":J2_5" function="internal">
        <lane id=":J2_5_0" index="0" speed="13.89" length="14.40" shape="507.20,204.80 492.80,204.80"/>
        <lane id=":J2_5_1" index="1" speed="13.89" length="14.40" shape="507.20,201.60 492.80,201.60"/>
    </edge>
    <edge id=":J2_7" function="internal">
        <lane id=":J2_7_0" index="0" speed="8.67" length="3.71" shape="507.20,201.60 503.56,200.89"/>
    </edge>
    <edge id=":J2_8" function="internal">
        <lane id=":J2_8_0" index="0" speed="3.65" length="1.44" shape="507.20,201.60 506.00,200.80"/>
    </edge>
    <edge id=":J2_20" function="internal">
        <lane id=":J2_20_0" index="0" speed="8.67" length="13.14" shape="503.56,200.89 503.35,200.85 500.60,198.60 498.95,194.85 498.40,189.60"/>
    </edge>
    <edge id=":J2_21" function="internal">
        <lane id=":J2_21_0" index="0" speed="3.65" length="3.23" shape="506.00,200.80 505.60,200.00 506.00,199.20 507.20,198.40"/>
    </edge>
    <edge id=":J2_9" function="internal">
        <lane id=":J2_9_0" index="0" speed="6.51" length="9.03" shape="501.60,189.60 501.95,192.05 503.00,193.80 504.75,194.85 507.20,195.20"/>
    </edge>
    <edge id=":J2_10" function="internal">
        <lane id=":J2_10_0" index="0" speed="8.33" length="20.80" shape="501.60,189.60 501.60,210.40"/>
    </edge>
    <edge id=":J2_11" function="internal">
        <lane id=":J2_11_0" index="0" speed="8.67" length="5.56" shape="501.60,189.60 501.05,194.85 500.94,195.11"/>
    </edge>
    <edge id=":J2_12" function="internal">
        <lane id=":J2_12_0" index="0" speed="3.65" length="1.44" shape="501.60,189.60 500.80,190.80"/>
    </edge>
    <edge id=":J2_22" function="internal">
        <lane id=":J2_22_0" index="0" speed="8.67" length="11.29" shape="500.94,195.11 499.40,198.60 496.65,200.85 492.80,201.60"/>
    </edge>
    <edge id=":J2_23" function="internal">
        <lane id=":J2_23_0" index="0" speed="3.65" length="3.23" shape="500.80,190.80 500.00,191.20 499.20,190.80 498.40,189.60"/>
    </edge>
    <edge id=":J2_13" function="internal">
        <lane id=":J2_13_0" index="0" speed="6.51" length="9.03" shape="492.80,195.20 495.25,194.85 497.00,193.80 498.05,192.05 498.40,189.60"/>
    </edge>
    <edge id=":J2_14" function="internal">
        <lane id=":J2_14_0" index="0" speed="13.89" length="14.40" shape="492.80,195.20 507.20,195.20"/>
        <lane id=":J2_14_1" index="1" speed="13.89" length="14.40" shape="492.80,198.40 507.20,198.40"/>
    </edge>
    <edge id=":J2_16" function="internal">
        <lane id=":J2_16_0" index="0" speed="8.67" length="3.71" shape="492.80,198.40 496.44,199.11"/>
    </edge>
    <edge id=":J2_17" function="internal">
        <lane id=":J2_17_0" index="0" speed="3.65" length="1.44" shape="492.80,198.40 494.00,199.20"/>
    </edge>
    <edge id=":J2_24" function="internal">
        <lane id=":J2_24_0" index="0" speed="8.67" length="13.14" shape="496.44,199.11 496.65,199.15 499.40,201.40 501.05,205.15 501.60,210.40"/>
    </edge>
    <edge id=":J2_25" function="internal">
        <lane id=":J2_25_0" index="0" speed="3.65" length="3.23" shape="494.00,199.20 494.40,200.00 494.00,200.80 492.80,201.60"/>
    </edge>
    <edge id=":J2N_0" function="internal">
        <lane id=":J2N_0_0" index="0" speed="3.65" length="4.67" shape="501.60,400.00 500.80,401.20 500.00,401.60 499.20,401.20 498.40,400.00"/>
    </edge>
    <edge id=":J2S_0" function="internal">
        <lane id=":J2S_0_0" index="0" speed="3.65" length="4.67" shape="498.40,0.00 499.20,-1.20 500.00,-1.60 500.80,-1.20 501.60,0.00"/>
    </edge>
    <edge id=":J3_0" function="internal">
        <lane id=":J3_0_0" index="0" speed="6.51" length="9.03" shape="798.40,210.40 798.05,207.95 797.00,206.20 795.25,205.15 792.80,204.80"/>
    </edge>
    <edge id=":J3_1" function="internal">
        <lane id=":J3_1_0" index="0" speed="8.33" length="20.80" shape="798.40,210.40 798.40,189.60"/>
    </edge>
    <edge id=":J3_2" function="internal">
        <lane id=":J3_2_0" index="0" speed="8.67" length="5.56" shape="798.40,210.40 798.95,205.15 799.06,204.89"/>
    </edge>
    <edge id=":J3_3" function="internal">
        <lane id=":J3_3_0" index="0" speed="3.65" length="1.44" shape="798.40,210.40 799.20,209.20"/>
    </edge>
    <edge id=":J3_18" function="internal">
        <lane id=":J3_18_0" index="0" speed="8.67" length="11.29" shape="799.06,204.89 800.60,201.40 803.35,199.15 807.20,198.40"/>
    </edge>
    <edge id=":J3_19" function="internal">
        <lane id=":J3_19_0" index="0" speed="3.65" length="3.23" shape="799.20,209.20 800.00,208.80 800.80,209.20 801.60,210.40"/>
    </edge>
    <edge id=":J3_4" function="internal">
        <lane id=":J3_4_0" index="0" speed="6.51" length="9.03" shape="807.20,204.80 804.75,205.15 803.00,206.20 801.95,207.95 801.60,210.40"/>
    </edge>
    <edge id=":J3_5" function="internal">
        <lane id=":J3_5_0" index="0" speed="13.89" length="14.40" shape="807.20,204.80 792.80,204.80"/>
        <lane id=":J3_5_1" index="1" speed="13.89" length="14.40" shape="807.20,201.60 792.80,201.60"/>
    </edge>
    <edge id=":J3_7" function="internal">
        <lane id=":J3_7_0" index="0" speed="8.67" length="3.71" shape="807.20,201.60 803.56,200.89"/>
    </edge>
    <edge id=":J3_8" function="internal">
        <lane id=":J3_8_0" index="0" speed="3.65" length="1.44" shape="807.20,201.60 806.00,200.80"/>
    </edge>
    <edge id=":J3_20" function="internal">
        <lane id=":J3_20_0" index="0" speed="8.67" length="13.14" shape="803.56,200.89 803.35,200.85 800.60,198.60 798.95,194.85 798.40,189.60"/>
    </edge>
    <edge id=":J3_21" function="internal">
        <lane id=":J3_21_0" index="0" speed="3.65" length="3.23" shape="806.00,200.80 805.60,200.00 806.00,199.20 807.20,198.40"/>
    </edge>
    <edge id=":J3_9" function="internal">
        <lane id=":J3_9_0" index="0" speed="6.51" length="9.03" shape="801.60,189.60 801.95,192.05 803.00,193.80 804.75,194.85 807.20,195.20"/>
    </edge>
    <edge id=":J3_10" function="internal">
        <lane id=":J3_10_0" index="0" speed="8.33" length="20.80" shape="801.60,189.60 801.60,210.40"/>
    </edge>
    <edge id=":J3_11" function="internal">
        <lane id=":J3_11_0" index="0" speed="8.67" length="5.56" shape="801.60,189.60 801.05,194.85 800.94,195.11"/>
    </edge>
    <edge id=":J3_12" function="internal">
        <lane id=":J3_12_0" index="0" speed="3.65" length="1.44" shape="801.60,189.60 800.80,190.80"/>
    </edge>
    <edge id=":J3_22" function="internal">
        <lane id=":J3_22_0" index="0" speed="8.67" length="11.29" shape="800.94,195.11 799.40,198.60 796.65,200.85 792.80,201.60"/>
    </edge>
    <edge id=":J3_23" function="internal">
        <lane id=":J3_23_0" index="0" speed="3.65" length="3.23" shape="800.80,190.80 800.00,191.20 799.20,190.80 798.40,189.60"/>
    </edge>
    <edge id=":J3_13" function="internal">
        <lane id=":J3_13_0" index="0" speed="6.51" length="9.03" shape="792.80,195.20 795.25,194.85 797.00,193.80 798.05,192.05 798.40,189.60"/>
    </edge>
    <edge id=":J3_14" function="internal">
        <lane id=":J3_14_0" index="0" speed="13.89" length="14.40" shape="792.80,195.20 807.20,195.20"/>
        <lane id=":J3_14_1" index="1" speed="13.89" length="14.40" shape="792.80,198.40 807.20,198.40"/>
    </edge>
    <edge id=":J3_16" function="internal">
        <lane id=":J3_16_0" index="0" speed="8.67" length="3.71" shape="792.80,198.40 796.44,199.11"/>
    </edge>
    <edge id=":J3_17" function="internal">
        <lane id=":J3_17_0" index="0" speed="3.65" length="1.44" shape="792.80,198.40 794.00,199.20"/>
    </edge>
    <edge id=":J3_24" function="internal">
        <lane id=":J3_24_0" index="0" speed="8.67" length="13.14" shape="796.44,199.11 796.65,199.15 799.40,201.40 801.05,205.15 801.60,210.40"/>
    </edge>
    <edge id=":J3_25" function="internal">
        <lane id=":J3_25_0" index="0" speed="3.65" length="3.23" shape="794.00,199.20 794.40,200.00 794.00,200.80 792.80,201.60"/>
    </edge>
    <edge id=":J3N_0" function="internal">
        <lane id=":J3N_0_0" index="0" speed="3.65" length="4.67" shape="801.60,400.00 800.80,401.20 800.00,401.60 799.20,401.20 798.40,400.00"/>
    </edge>
    <edge id=":J3S_0" function="internal">
        <lane id=":J3S_0_0" index="0" speed="3.65" length="4.67" shape="798.40,0.00 799.20,-1.20 800.00,-1.60 800.80,-1.20 801.60,0.00"/>
    </edge>
    <edge id=":J4_0" function="internal">
        <lane id=":J4_0_0" index="0" speed="6.51" length="9.03" shape="1098.40,210.40 1098.05,207.95 1097.00,206.20 1095.25,205.15 1092.80,204.80"/>
    </edge>
    <edge id=":J4_1" function="internal">
        <lane id=":J4_1_0" index="0" speed="8.33" length="20.80" shape="1098.40,210.40 1098.40,189.60"/>
    </edge>
    <edge id=":J4_2" function="internal">
        <lane id=":J4_2_0" index="0" speed="8.67" length="5.56" shape="1098.40,210.40 1098.95,205.15 1099.06,204.89"/>
    </edge>
    <edge id=":J4_3" function="internal">
        <lane id=":J4_3_0" index="0" speed="3.65" length="1.44" shape="1098.40,210.40 1099.20,209.20"/>
    </edge>
    <edge id=":J4_18" function="internal">
        <lane id=":J4_18_0" index="0" speed="8.67" length="11.29" shape="1099.06,204.89 1100.60,201.40 1103.35,199.15 1107.20,198.40"/>
    </edge>
    <edge id=":J4_19" function="internal">
        <lane id=":J4_19_0" index="0" speed="3.65" length="3.23" shape="1099.20,209.20 1100.00,208.80 1100.80,209.20 1101.60,210.40"/>
    </edge>
    <edge id=":J4_4" function="internal">
        <lane id=":J4_4_0" index="0" speed="6.51" length="9.03" shape="1107.20,204.80 1104.75,205.15 1103.00,206.20 1101.95,207.95 1101.60,210.40"/>
    </edge>
    <edge id=":J4_5" function="internal">
        <lane id=":J4_5_0" index="0" speed="13.89" length="14.40" shape="1107.20,204.80 1092.80,204.80"/>
        <lane id=":J4_5_1" index="1" speed="13.89" length="14.40" shape="1107.20,201.60 1092.80,201.60"/>
    </edge>
    <edge id=":J4_7" function="internal">
        <lane id=":J4_7_0" index="0" speed="8.67" length="3.71" shape="1107.20,201.60 1103.56,200.89"/>
    </edge>
    <edge id=":J4_8" function="internal">
        <lane id=":J4_8_0" index="0" speed="3.65" length="1.44" shape="1107.20,201.60 1106.00,200.80"/>
    </edge>
    <edge id=":J4_20" function="internal">
        <lane id=":J4_20_0" index="0" speed="8.67" length="13.14" shape="1103.56,200.89 1103.35,200.85 1100.60,198.60 1098.95,194.85 1098.40,189.60"/>
    </edge>
    <edge id=":J4_21" function="internal">
        <lane id=":J4_21_0" index="0" speed="3.65" length="3.23" shape="1106.00,200.80 1105.60,200.00 1106.00,199.20 1107.20,198.40"/>
    </edge>
    <edge id=":J4_9" function="internal">
        <lane id=":J4_9_0" index="0" speed="6.51" length="9.03" shape="1101.60,189.60 1101.95,192.05 1103.00,193.80 1104.75,194.85 1107.20,195.20"/>
    </edge>
    <edge id=":J4_10" function="internal">
        <lane id=":J4_10_0" index="0" speed="8.33" length="20.80" shape="1101.60,189.60 1101.60,210.40"/>
    </edge>
    <edge id=":J4_11" function="internal">
        <lane id=":J4_11_0" index="0" speed="8.67" length="5.56" shape="1101.60,189.60 1101.05,194.85 1100.94,195.11"/>
    </edge>
    <edge id=":J4_12" function="internal">
        <lane id=":J4_12_0" index="0" speed="3.65" length="1.44" shape="1101.60,189.60 1100.80,190.80"/>
    </edge>
    <edge id=":J4_22" function="internal">
        <lane id=":J4_22_0" index="0" speed="8.67" length="11.29" shape="1100.94,195.11 1099.40,198.60 1096.65,200.85 1092.80,201.60"/>
    </edge>
    <edge id=":J4_23" function="internal">
        <lane id=":J4_23_0" index="0" speed="3.65" length="3.23" shape="1100.80,190.80 1100.00,191.20 1099.20,190.80 1098.40,189.60"/>
    </edge>
    <edge id=":J4_13" function="internal">
        <lane id=":J4_13_0" index="0" speed="6.51" length="9.03" shape="1092.80,195.20 1095.25,194.85 1097.00,193.80 1098.05,192.05 1098.40,189.60"/>
    </edge>
    <edge id=":J4_14" function="internal">
        <lane id=":J4_14_0" index="0" speed="13.89" length="14.40" shape="1092.80,195.20 1107.20,195.20"/>
        <lane id=":J4_14_1" index="1" speed="13.89" length="14.40" shape="1092.80,198.40 1107.20,198.40"/>
    </edge>
    <edge id=":J4_16" function="internal">
        <lane id=":J4_16_0" index="0" speed="8.67" length="3.71" shape="1092.80,198.40 1096.44,199.11"/>
    </edge>
    <edge id=":J4_17" function="internal">
        <lane id=":J4_17_0" index="0" speed="3.65" length="1.44" shape="1092.80,198.40 1094.00,199.20"/>
    </edge>
    <edge id=":J4_24" function="internal">
        <lane id=":J4_24_0" index="0" speed="8.67" length="13.14" shape="1096.44,199.11 1096.65,199.15 1099.40,201.40 1101.05,205.15 1101.60,210.40"/>
    </edge>
    <edge id=":J4_25" function="internal">
        <lane id=":J4_25_0" index="0" speed="3.65" length="3.23" shape="1094.00,199.20 1094.40,200.00 1094.00,200.80 1092.80,201.60"/>
    </edge>
    <edge id=":J4N_0" function="internal">
        <lane id=":J4N_0_0" index="0" speed="3.65" length="4.67" shape="1101.60,400.00 1100.80,401.20 1100.00,401.60 1099.20,401.20 1098.40,400.00"/>
    </edge>
    <edge id=":J4S_0" function="internal">
        <lane id=":J4S_0_0" index="0" speed="3.65" length="4.67" shape="1098.40,0.00 1099.20,-1.20 1100.00,-1.60 1100.80,-1.20 1101.60,0.00"/>
    </edge>
    <edge id=":end_0" function="internal">
        <lane id=":end_0_0" index="0" speed="3.65" length="4.67" shape="1300.00,198.40 1301.20,199.20 1301.60,200.00 1301.20,200.80 1300.00,201.60"/>
    </edge>
    <edge id=":start_0" function="internal">
        <lane id=":start_0_0" index="0" speed="3.65" length="4.67" shape="0.00,201.60 -1.20,200.80 -1.60,200.00 -1.20,199.20 0.00,198.40"/>
    </edge>

    <edge id="J1N_J1" from="J1N" to="J1" priority="-1">
        <lane id="J1N_J1_0" index="0" speed="8.33" length="189.60" shape="198.40,400.00 198.40,210.40"/>
    </edge>
    <edge id="J1S_J1" from="J1S" to="J1" priority="-1">
        <lane id="J1S_J1_0" index="0" speed="8.33" length="189.60" shape="201.60,0.00 201.60,189.60"/>
    </edge>
    <edge id="J1_J1N" from="J1" to="J1N" priority="-1">
        <lane id="J1_J1N_0" index="0" speed="8.33" length="189.60" shape="201.60,210.40 201.60,400.00"/>
    </edge>
    <edge id="J1_J1S" from="J1" to="J1S" priority="-1">
        <lane id="J1_J1S_0" index="0" speed="8.33" length="189.60" shape="198.40,189.60 198.40,0.00"/>
    </edge>
    <edge id="J1_J2" from="J1" to="J2" priority="-1">
        <lane id="J1_J2_0" index="0" speed="13.89" length="285.60" shape="207.20,195.20 492.80,195.20"/>
        <lane id="J1_J2_1" index="1" speed="13.89" length="285.60" shape="207.20,198.40 492.80,198.40"/>
    </edge>
    <edge id="J1_start" from="J1" to="start" priority="-1">
        <lane id="J1_start_0" index="0" speed="13.89" length="192.80" shape="192.80,204.80 0.00,204.80"/>
        <lane id="J1_start_1" index="1" speed="13.89" length="192.80" shape="192.80,201.60 0.00,201.60"/>
    </edge>
    <edge id="J2N_J2" from="J2N" to="J2" priority="-1">
        <lane id="J2N_J2_0" index="0" speed="8.33" length="189.60" shape="498.40,400.00 498.40,210.40"/>
    </edge>
    <edge id="J2S_J2" from="J2S" to="J2" priority="-1">
        <lane id="J2S_J2_0" index="0" speed="8.33" length="189.60" shape="501.60,0.00 501.60,189.60"/>
    </edge>
    <edge id="J2_J1" from="J2" to="J1" priority="-1">
        <lane id="J2_J1_0" index="0" speed="13.89" length="285.60" shape="492.80,204.80 207.20,204.80"/>
        <lane id="J2_J1_1" index="1" speed="13.89" length="285.60" shape="492.80,201.60 207.20,201.60"/>
    </edge>
    <edge id="J2_J2N" from="J2" to="J2N" priority="-1">
        <lane id="J2_J2N_0" index="0" speed="8.33" length="189.60" shape="501.60,210.40 501.60,400.00"/>
    </edge>
    <edge id="J2_J2S" from="J2" to="J2S" priority="-1">
        <lane id="J2_J2S_0" index="0" speed="8.33" length="189.60" shape="498.40,189.60 498.40,0.00"/>
    </edge>
    <edge id="J2_J3" from="J2" to="J3" priority="-1">
        <lane id="J2_J3_0" index="0" speed="13.89" length="285.60" shape="507.20,195.20 792.80,195.20"/>
        <lane id="J2_J3_1" index="1" speed="13.89" length="285.60" shape="507.20,198.40 792.80,198.40"/>
    </edge>
    <edge id="J3N_J3" from="J3N" to="J3" priority="-1">
        <lane id="J3N_J3_0" index="0" speed="8.33" length="189.60" shape="798.40,400.00 798.40,210.40"/>
    </edge>
    <edge id="J3S_J3" from="J3S" to="J3" priority="-1">
        <lane id="J3S_J3_0" index="0" speed="8.33" length="189.60" shape="801.60,0.00 801.60,189.60"/>
    </edge>
    <edge id="J3_J2" from="J3" to="J2" priority="-1">
        <lane id="J3_J2_0" index="0" speed="13.89" length="285.60" shape="792.80,204.80 507.20,204.80"/>
        <lane id="J3_J2_1" index="1" speed="13.89" length="285.60" shape="792.80,201.60 507.20,201.60"/>
    </edge>
    <edge id="J3_J3N" from="J3" to="J3N" priority="-1">
        <lane id="J3_J3N_0" index="0" speed="8.33" length="189.60" shape="801.60,210.40 801.60,400.00"/>
    </edge>
    <edge id="J3_J3S" from="J3" to="J3S" priority="-1">
        <lane id="J3_J3S_0" index="0" speed="8.33" length="189.60" shape="798.40,189.60 798.40,0.00"/>
    </edge>
    <edge id="J3_J4" from="J3" to="J4" priority="-1">
        <lane id="J3_J4_0" index="0" speed="13.89" length="285.60" shape="807.20,195.20 1092.80,195.20"/>
        <lane id="J3_J4_1" index="1" speed="13.89" length="285.60" shape="807.20,198.40 1092.80,198.40"/>
    </edge>
    <edge id="J4N_J4" from="J4N" to="J4" priority="-1">
        <lane id="J4N_J4_0" index="0" speed="8.33" length="189.60" shape="1098.40,400.00 1098.40,210.40"/>
    </edge>
    <edge id="J4S_J4" from="J4S" to="J4" priority="-1">
        <lane id="J4S_J4_0" index="0" speed="8.33" length="189.60" shape="1101.60,0.00 1101.60,189.60"/>
    </edge>
    <edge id="J4_J3" from="J4" to="J3" priority="-1">
        <lane id="J4_J3_0" index="0" speed="13.89" length="285.60" shape="1092.80,204.80 807.20,204.80"/>
        <lane id="J4_J3_1" index="1" speed="13.89" length="285.60" shape="1092.80,201.60 807.20,201.60"/>
    </edge>
    <edge id="J4_J4N" from="J4" to="J4N" priority="-1">
        <lane id="J4_J4N_0" index="0" speed="8.33" length="189.60" shape="1101.60,210.40 1101.60,400.00"/>
    </edge>
    <edge id="J4_J4S" from="J4" to="J4S" priority="-1">
        <lane id="J4_J4S_0" index="0" speed="8.33" length="189.60" shape="1098.40,189.60 1098.40,0.00"/>
    </edge>
    <edge id="J4_end" from="J4" to="end" priority="-1">
        <lane id="J4_end_0" index="0" speed="13.89" length="192.80" shape="1107.20,195.20 1300.00,195.20"/>
        <lane id="J4_end_1" index="1" speed="13.89" length="192.80" shape="1107.20,198.40 1300.00,198.40"/>
    </edge>
    <edge id="end_J4" from="end" to="J4" priority="-1">
        <lane id="end_J4_0" index="0" speed="13.89" length="192.80" shape="1300.00,204.80 1107.20,204.80"/>
        <lane id="end_J4_1" index="1" speed="13.89" length="192.80" shape="1300.00,201.60 1107.20,201.60"/>
    </edge>
    <edge id="start_J1" from="start" to="J1" priority="-1">
        <lane id="start_J1_0" index="0" speed="13.89" length="192.80" shape="0.00,195.20 192.80,195.20"/>
        <lane id="start_J1_1" index="1" speed="13.89" length="192.80" shape="0.00,198.40 192.80,198.40"/>
    </edge>

    <tlLogic id="J1" type="actuated" programID="0" offset="0">
        <phase duration="42" state="rrrrGGGggrrrrGGGgg" minDur="5" maxDur="50"/>
        <phase duration="3"  state="rrrryyyyyrrrryyyyy"/>
        <phase duration="42" state="GGggrrrrrGGggrrrrr" minDur="5" maxDur="50"/>
        <phase duration="3"  state="yyyyrrrrryyyyrrrrr"/>
    </tlLogic>
    <tlLogic id="J2" type="actuated" programID="0" offset="0">
        <phase duration="42" state="rrrrGGGggrrrrGGGgg" minDur="5" maxDur="50"/>
        <phase duration="3"  state="rrrryyyyyrrrryyyyy"/>
        <phase duration="42" state="GGggrrrrrGGggrrrrr" minDur="5" maxDur="50"/>
        <phase duration="3"  state="yyyyrrrrryyyyrrrrr"/>
    </tlLogic>
    <tlLogic id="J3" type="actuated" programID="0" offset="0">
        <phase duration="42" state="rrrrGGGggrrrrGGGgg" minDur="5" maxDur="50"/>
        <phase duration="3"  state="rrrryyyyyrrrryyyyy"/>
        <phase duration="42" state="GGggrrrrrGGggrrrrr" minDur="5" maxDur="50"/>
        <phase duration="3"  state="yyyyrrrrryyyyrrrrr"/>
    </tlLogic>
    <tlLogic id="J4" type="actuated" programID="0" offset="0">
        <phase duration="42" state="rrrrGGGggrrrrGGGgg" minDur="5" maxDur="50"/>
        <phase duration="3"  state="rrrryyyyyrrrryyyyy"/>
        <phase duration="42" state="GGggrrrrrGGggrrrrr" minDur="5" maxDur="50"/>
        <phase duration="3"  state="yyyyrrrrryyyyrrrrr"/>
    </tlLogic>

    <junction id="J1" type="traffic_light" x="200.00" y="200.00" incLanes="J1N_J1_0 J2_J1_0 J2_J1_1 J1S_J1_0 start_J1_0 start_J1_1" intLanes=":J1_0_0 :J1_1_0 :J1_18_0 :J1_19_0 :J1_4_0 :J1_5_0 :J1_5_1 :J1_20_0 :J1_21_0 :J1_9_0 :J1_10_0 :J1_22_0 :J1_23_0 :J1_13_0 :J1_14_0 :J1_14_1 :J1_24_0 :J1_25_0" shape="196.80,210.40 203.20,210.40 203.64,208.18 204.20,207.40 204.98,206.84 205.98,206.51 207.20,206.40 207.20,193.60 204.98,193.16 204.20,192.60 203.64,191.82 203.31,190.82 203.20,189.60 196.80,189.60 196.36,191.82 195.80,192.60 195.02,193.16 194.02,193.49 192.80,193.60 192.80,206.40 195.02,206.84 195.80,207.40 196.36,208.18 196.69,209.18">
        <request index="0"  response="000000000001100000" foes="000000000001100000" cont="0"/>
        <request index="1"  response="011110000011100000" foes="011111100011100000" cont="0"/>
        <request index="2"  response="011100010011100000" foes="011100010111100000" cont="1"/>
        <request index="3"  response="010000010000010000" foes="010000010000010000" cont="1"/>
        <request index="4"  response="000000000000000000" foes="010000010000001000" cont="0"/>
        <request index="5"  response="000000000000000100" foes="110000110000000111" cont="0"/>
        <request index="6"  response="000000100000000100" foes="110000110000000111" cont="0"/>
        <request index="7"  response="001110100000000100" foes="001111110000000110" cont="1"/>
        <request index="8"  response="001100000000000100" foes="001100000000000100" cont="1"/>
        <request index="9"  response="001100000000000000" foes="001100000000000000" cont="0"/>
        <request index="10" response="011100000011110000" foes="011100000011111100" cont="0"/>